  Page 1                                    Fri Nov 30 08:49:52 2018

  ******************************************************************
  *                           E P A N E T                          *
  *                   Hydraulic and Water Quality                  *
  *                   Analysis for Pipe Networks                   *
  *                         Version 2.00.12                        *
  ******************************************************************
  
  Analysis begun Fri Nov 30 08:49:52 2018

   
  Hydraulic Status:
  -----------------------------------------------------------------------
     0:00:00: Balanced after 6 trials
     0:00:00: Reservoir 1 is emptying
     0:00:00: Reservoir 2 is emptying
   
  Analysis ended Fri Nov 30 08:49:52 2018
